48

O 18.767432116377943 0.0 0
H 16.993978238675407 -0.3811845401650193 -0.02555596989797192
H 19.391321751421952 -0.6349103876780269 -1.5807415792910604
O 17.338846410116563 7.181985338974332 0
H 17.710712145708968 5.715600898133183 1.0012621854178452
H 18.58342656457784 8.402546907092605 0.5023376505401667
O 13.270578514949044 13.270578514949042 0
H 12.726449843827021 13.63201706056061 -1.6924478085322414
H 12.10431325433118 14.174972108688813 1.0549838800070916
O 7.181985338974333 17.338846410116563 0
H 7.1425041175491115 18.2224396217798 -1.5839184597238054
H 6.5216053465335495 18.52819359245877 1.2001853869444392
O 1.1491737834768743e-15 18.767432116377943 0
H 0.42894031101045155 19.065171429702858 -1.737370118451298
H -1.0437123158357078 17.28407629241529 -0.03759679355141804
O -7.181985338974331 17.338846410116563 0
H -8.634653811238081 18.41811122724918 -0.12663009826661362
H -5.9142649388477295 18.164172233935638 -1.0014068549978206
O -13.270578514949042 13.270578514949044 0
H -12.895574114872062 14.875204076008284 -0.7587107000132731
H -12.700146277470836 12.049537152816221 -1.2143963405753644
O -17.338846410116563 7.181985338974333 0
H -16.367605545304535 5.7858521611830245 -0.631345190831396
H -17.651107546305404 8.21455012319138 -1.4585596891513435
O -18.767432116377943 2.2983475669537485e-15 0
H -17.626288882642598 -1.393991832136666 0.21371080841338647
H -17.884043364360494 1.421578679163152 0.6998798392254337
O -17.338846410116563 -7.1819853389743304 0
H -18.94052455764647 -6.36479417591391 -0.24066394066735505
H -17.14495493523853 -8.240451643032156 -1.460530245061773
O -13.270578514949046 -13.270578514949042 0
H -13.33391803287453 -12.76892087157681 1.7422460021224317
H -12.644179498503052 -11.807890560012462 -0.8713562051625869
O -7.181985338974343 -17.33884641011656 0
H -5.841337400574849 -18.244958023456505 -0.8201940423046721
H -7.864860001680459 -18.52110852824184 1.1945844033287676
O -3.4475213504306224e-15 -18.767432116377943 0
H 0.3228793826379817 -20.55172625656047 0.05600663508918338
H 1.6233325946896797 -18.00342603219254 0.2686622562663987
O 7.181985338974337 -17.33884641011656 0
H 7.735719707213352 -17.182140261339143 1.7204403070036165
H 6.415991275701038 -15.738435394348727 -0.37819451772262486
O 13.270578514949042 -13.270578514949046 0
H 12.743480434647907 -12.165440876882354 -1.3386305809548955
H 14.744488623159278 -14.103229494689227 -0.6522076022631283
O 17.33884641011656 -7.181985338974344 0
H 19.016391648134274 -6.50902378958506 -0.15510688264573969
H 17.501946371508502 -8.537764721917734 1.1943006677449364